powerflow/Codes/PF_Formulation/resultados_csv/19/500bus/barras.csv
caso,script,bus_id,vm_pu,va_rad,pd_pu,qd_pu,pg_pu,qg_pu,bus_type
500bus.pwf,19,1,1.0031920142710165,-0.15827742776801482,0.0,0.0,0.0,0.0,1
500bus.pwf,19,2,1.0026072243486626,-0.15955322535918787,0.428,0.11410000000000001,0.0,0.0,1
500bus.pwf,19,3,1.0002947599682221,-0.18189710666756714,0.0,0.0,0.0,0.0,1
500bus.pwf,19,4,0.9981176738320378,-0.18632821805784372,1.327,0.3538,0.0,0.0,1
500bus.pwf,19,5,0.9983298693178868,0.01514105330120052,0.0,0.0,0.0,0.0,1
500bus.pwf,19,6,0.9982803569908808,0.015031125773319194,0.03213,0.00857,0.0,0.0,1
500bus.pwf,19,7,1.0328991974513526,-0.09033872917498938,0.0,0.0,0.0,0.0,1
500bus.pwf,19,8,1.0211426802240797,-0.12183718988022808,0.0,0.0,0.0,0.0,1
500bus.pwf,19,9,1.0553571654027512,-0.04230187572206181,0.0,0.0,7.718,3.596997647176328,2
500bus.pwf,19,10,0.9892138135458447,-0.2165444013537317,0.0,0.0,0.0,0.0,1
500bus.pwf,19,11,0.9891762848927765,-0.21662088644138935,0.02472,0.00659,0.0,0.0,1
500bus.pwf,19,12,0.9717720634405401,-0.23196830177573066,0.0,0.0,0.0,0.0,1
500bus.pwf,19,13,0.9712131935188226,-0.23313685900791542,0.3716,0.09910000000000001,0.0,0.0,1
500bus.pwf,19,14,1.0088297484482676,-0.045823111179015316,0.0,0.0,0.0,0.0,1
500bus.pwf,19,15,1.0028102741786011,-0.08945433308703814,0.0,0.0,0.0,0.0,1
500bus.pwf,19,16,1.0137172323820425,0.006303567119501723,0.0,0.0,4.444,0.4072632763326868,2
500bus.pwf,19,17,1.0123414270667999,0.0,0.0,0.0,6.517474362176421,0.5001800238685401,3
500bus.pwf,19,18,1.0168940679998466,0.03259024465722757,0.0,0.0,1.5759999999999998,0.1782855338190985,2
500bus.pwf,19,19,0.9855699918864621,-0.2223248604163537,0.0,0.0,0.0,0.0,1
500bus.pwf,19,20,0.9854972955480144,-0.2224998267504379,0.045419999999999995,0.012110000000000001,0.0,0.0,1
500bus.pwf,19,21,0.9884102905709417,-0.1864650295635042,0.0,0.0,0.0,0.0,1
500bus.pwf,19,22,0.9862384235050948,-0.19106791449848418,1.4869999999999999,0.39649999999999996,0.0,0.0,1
500bus.pwf,19,23,1.0032767752519922,-0.1074936893470886,0.0,0.0,0.0,0.0,1
500bus.pwf,19,24,0.9888564010875881,-0.1562836711795507,0.0,0.0,0.0,0.0,1
500bus.pwf,19,25,0.9888200325218018,-0.15636460524617637,0.02283,0.00609,0.0,0.0,1
500bus.pwf,19,26,0.9885149206671291,-0.1570768022955034,0.21660000000000001,0.05777,0.0,0.0,1
500bus.pwf,19,27,1.0072565860606713,-0.25826994997047453,0.0,0.0,0.0,0.0,1
500bus.pwf,19,28,1.0061615198531997,-0.2606167180489121,0.6293,0.1678,0.0,0.0,1
500bus.pwf,19,29,0.9878190790648607,-0.2268735723190346,0.0,0.0,0.0,0.0,1
500bus.pwf,19,30,0.9862975932040455,-0.23008945610448417,0.9997,0.2666,0.0,0.0,1
500bus.pwf,19,31,0.9899107675458264,-0.2739332609431041,0.0,0.0,0.0,0.0,1
500bus.pwf,19,32,0.9897588148135833,-0.27425841960542796,0.09765,0.02604,0.0,0.0,1
500bus.pwf,19,33,0.9778516859770379,-0.24062127789060678,0.0,0.0,0.0,0.0,1
500bus.pwf,19,34,0.9774678057815839,-0.2414365909020403,0.25,0.06666,0.0,0.0,1
500bus.pwf,19,35,0.9749298541522473,-0.2518939432108146,0.0,0.0,0.0,0.0,1
500bus.pwf,19,36,0.9743100974944459,-0.2532058428284938,0.4335,0.11560000000000001,0.0,0.0,1
500bus.pwf,19,37,0.9988191909606507,0.022877239973197426,0.0,0.0,0.0,0.0,1
500bus.pwf,19,38,0.9988172233166555,0.022872477209011324,0.0012900000000000001,0.00034,0.0,0.0,1
500bus.pwf,19,39,1.006014044233721,-0.10391166457841104,0.0,0.0,0.0,0.0,1
500bus.pwf,19,40,0.9994716462826726,-0.12567970237358134,0.0,0.0,0.0,0.0,1
500bus.pwf,19,41,0.9984953350277024,-0.12786126969498046,0.5799,0.15460000000000002,0.0,0.0,1
500bus.pwf,19,42,0.982879299299779,-0.20842647799356,0.0,0.0,0.0,0.0,1
500bus.pwf,19,43,0.9828169198188936,-0.20856383459637554,0.044610000000000004,0.011899999999999999,0.0,0.0,1
500bus.pwf,19,44,1.005558592187138,-0.14011833182490535,0.0,0.0,0.0,0.0,1
500bus.pwf,19,45,1.005524845591426,-0.14019278540712957,0.02031,0.00542,0.0,0.0,1
500bus.pwf,19,46,0.9739627228710075,-0.20246675488912358,0.0,0.0,0.0,0.0,1
500bus.pwf,19,47,0.9732821039202848,-0.2039749700827485,0.4341,0.1158,0.0,0.0,1
500bus.pwf,19,48,0.9832086321453235,-0.2910475982786543,0.0,0.0,0.0,0.0,1
500bus.pwf,19,49,0.9829271324411626,-0.2872789963897604,0.0,0.0,0.013000000000000001,-0.001589993771977124,2
500bus.pwf,19,50,0.9828606263809054,-0.2866235198362646,0.0,0.0,0.026000000000000002,-0.0031699937746907814,2
500bus.pwf,19,51,0.9832017076484353,-0.29106021575298796,0.0035399999999999997,0.00094,0.0,0.0,1
500bus.pwf,19,52,0.9828477435433463,-0.2918163936603845,0.2339,0.06237,0.0,0.0,1
500bus.pwf,19,53,0.9963717697132766,-0.20252811615493949,0.0,0.0,0.0,0.0,1
500bus.pwf,19,54,0.9958480621789654,-0.20353843728073615,0.3481,0.09282,0.0,0.0,1
500bus.pwf,19,55,0.9869657584997562,-0.19717984107341216,0.0,0.0,0.0,0.0,1
500bus.pwf,19,56,0.9869308388486794,-0.19725242083450828,0.02253,0.00601,0.0,0.0,1
500bus.pwf,19,57,0.9937061578504631,-0.14435884201089047,0.0,0.0,0.0,0.0,1
500bus.pwf,19,58,0.9852277900664997,-0.19216742482985094,0.0,0.0,0.0,0.0,1
500bus.pwf,19,59,0.9828527612770569,-0.19752639252839246,1.409,0.37579999999999997,0.0,0.0,1
500bus.pwf,19,60,0.9962751215028061,-0.13544066760118426,0.0,0.0,0.0,0.0,1
500bus.pwf,19,61,0.9962721530361365,-0.13544761343294492,0.0020399999999999997,0.00054,0.0,0.0,1
500bus.pwf,19,62,1.0010066111849636,-0.17879657683064473,0.0,0.0,0.0,0.0,1
500bus.pwf,19,63,1.0010066111849636,-0.17879657683064473,0.0,0.0,0.0,0.0,2
500bus.pwf,19,64,1.0004727373415696,-0.17987233596966473,0.3478,0.09273999999999999,0.0,0.0,1
500bus.pwf,19,65,0.9910612404750951,-0.15737250365846522,0.0,0.0,0.0,0.0,1
500bus.pwf,19,66,0.9886030944673476,-0.18533167565280192,0.0,0.0,0.0,0.0,1
500bus.pwf,19,67,0.9885310299531639,-0.18548043666772313,0.04569,0.01218,0.0,0.0,1
500bus.pwf,19,68,0.9963279356439757,-0.20052562946750846,0.0,0.0,0.0,0.0,1
500bus.pwf,19,69,0.9960311598355761,-0.20117826438816944,0.1696,0.04523,0.0,0.0,1
500bus.pwf,19,70,0.9721461992310318,-0.23753672414013458,0.0,0.0,0.0,0.0,1
500bus.pwf,19,71,0.972892871698166,-0.2356621297213696,0.0,0.0,0.04,0.015359886623895353,2
500bus.pwf,19,72,0.9733442957682007,-0.2344996505252979,0.0,0.0,0.02,0.0076798865153861195,2
500bus.pwf,19,73,0.9738294210863875,-0.23357125601184933,0.0,0.0,0.013999999999999999,0.005379886423822583,2
500bus.pwf,19,74,0.9844712773107398,-0.27093427531873293,0.0,0.0,0.0,0.0,1
500bus.pwf,19,75,0.9843918327101028,-0.27110839775610074,0.05301,0.01414,0.0,0.0,1
500bus.pwf,19,76,0.9989183987328942,0.038579711954325906,0.0,0.0,0.0,0.0,1
500bus.pwf,19,77,0.9988085459635287,0.03836183044271804,0.06951,0.01854,0.0,0.0,1
500bus.pwf,19,78,0.9941587618980735,-0.1310336643031208,0.0,0.0,0.0,0.0,1
500bus.pwf,19,79,0.994152954033535,-0.13104564918820266,0.00381,0.0010199999999999999,0.0,0.0,1
500bus.pwf,19,80,0.9883806374243301,-0.14595894781658983,0.0,0.0,0.0,0.0,1
500bus.pwf,19,81,0.9851563167592002,-0.19240825356090496,0.0,0.0,0.0,0.0,1
500bus.pwf,19,82,0.9775864506414449,-0.029016582981843668,0.0,0.0,3.6189999999999998,-0.1769712928741781,2
500bus.pwf,19,83,0.9760845120129397,-0.2487241267956827,0.0,0.0,0.0,0.0,1
500bus.pwf,19,84,0.9750665821451742,-0.25097287872463603,0.6141,0.1638,0.0,0.0,1
500bus.pwf,19,85,0.986629518649253,-0.2516807298739349,0.0,0.0,0.0,0.0,1
500bus.pwf,19,86,0.986327432583528,-0.2523544307024194,0.1759,0.04691,0.0,0.0,1
500bus.pwf,19,87,0.9894830851039147,0.05215469942084638,0.0,0.0,0.0,0.0,1
500bus.pwf,19,88,0.9893997623770965,0.051972078377148984,0.05253,0.01401,0.0,0.0,1
500bus.pwf,19,89,1.0047094893212318,-0.16459511187912118,0.0,0.0,0.0,0.0,1
500bus.pwf,19,90,1.0046164006329759,-0.1648123772930074,0.05901,0.01574,0.0,0.0,1
500bus.pwf,19,91,0.9934560966151418,-0.11718526969180725,0.0,0.0,0.0,0.0,1
500bus.pwf,19,92,0.9924468392747995,-0.11947049649411863,0.6503,0.1734,0.0,0.0,1
500bus.pwf,19,93,0.9953265124144209,-0.0776763582385216,0.0,0.0,0.0,0.0,1
500bus.pwf,19,94,0.9952526873089598,-0.07784157421808517,0.052140000000000006,0.0139,0.0,0.0,1
500bus.pwf,19,95,0.9950108306889632,-0.1158405855970378,0.0,0.0,0.0,0.0,1
500bus.pwf,19,96,0.9945212716081736,-0.11690685241195241,0.34,0.09066,0.0,0.0,1
500bus.pwf,19,97,0.9972872851645722,-0.30211134390517375,0.0,0.0,0.0,0.0,1
500bus.pwf,19,98,0.9966769575592731,-0.3035418190651747,0.3709,0.09891,0.0,0.0,1
500bus.pwf,19,99,0.9987256673542082,-0.12652543973256866,0.0,0.0,0.0,0.0,1
500bus.pwf,19,100,0.9985074823259207,-0.1269929457610644,0.1352,0.03606,0.0,0.0,1
500bus.pwf,19,101,0.9987115043725469,-0.12655317929372517,0.00891,0.0023799999999999997,0.0,0.0,1
500bus.pwf,19,102,0.9778382144104286,-0.2655103360009245,0.0,0.0,0.0,0.0,1
500bus.pwf,19,103,0.9771823196085487,-0.26701679388525834,0.38799999999999996,0.1035,0.0,0.0,1
500bus.pwf,19,104,0.9760003710875075,-0.28141274519587534,0.0,0.0,0.0,0.0,1
500bus.pwf,19,105,0.9746172469780857,-0.28442898916627374,0.8033,0.21420000000000003,0.0,0.0,1
500bus.pwf,19,106,0.9813833424506712,-0.2309434323160933,0.0,0.0,0.0,0.0,1
500bus.pwf,19,107,0.9811500367450595,-0.23145074515452688,0.16,0.042679999999999996,0.0,0.0,1
500bus.pwf,19,108,0.9911528823099522,-0.14442909908994672,0.0,0.0,0.0,0.0,1
500bus.pwf,19,109,0.9904502529581874,-0.14580272161728872,0.4758,0.12689999999999999,0.0,0.0,1
500bus.pwf,19,110,1.005916466222312,-0.05056366773098453,0.0,0.0,0.0,0.0,1
500bus.pwf,19,111,1.0049728859871059,-0.052761820135038044,0.6229,0.1661,0.0,0.0,1
500bus.pwf,19,112,0.9858121606189648,-0.2126682542391068,0.0,0.0,0.0,0.0,1
500bus.pwf,19,113,0.9851221631096058,-0.21406414369394697,0.45990000000000003,0.1226,0.0,0.0,1
500bus.pwf,19,114,0.9767490436308364,-0.25942258290627385,0.0,0.0,0.0,0.0,1
500bus.pwf,19,115,0.9766763411702777,-0.2595936944469439,0.05061,0.013500000000000002,0.0,0.0,1
500bus.pwf,19,116,0.9767041632700576,-0.25952899735188734,0.030990000000000004,0.00826,0.0,0.0,1
500bus.pwf,19,117,0.9793613923872029,-0.22050828817706764,0.0,0.0,0.0,0.0,1
500bus.pwf,19,118,0.979211811323392,-0.22084742797719054,0.08832000000000001,0.02355,0.0,0.0,1
500bus.pwf,19,119,0.9690069570614681,-0.23811077300244465,0.0,0.0,0.0,0.0,1
500bus.pwf,19,120,0.9685583666178396,-0.23909236841599868,0.3165,0.08439999999999999,0.0,0.0,1
500bus.pwf,19,121,0.9933313765831134,-0.21552818749902325,0.0,0.0,0.0,0.0,1
500bus.pwf,19,122,0.9924795826039448,-0.21752997216954148,0.5336,0.1423,0.0,0.0,1
500bus.pwf,19,123,1.0243080271230707,-0.04248511091172764,0.0,0.0,0.0,0.0,1
500bus.pwf,19,124,1.0203654527133286,-0.05474017281279019,0.0,0.0,0.0,0.0,1
500bus.pwf,19,125,1.0243080271230707,-0.04248511091172764,0.0,0.0,0.0,0.0,2
500bus.pwf,19,126,1.0243080271230707,-0.04248511091172764,0.0,0.0,0.0,0.0,2
500bus.pwf,19,127,1.0506164205901456,0.029494189964253032,0.0,0.0,1.62,0.6220996760306229,2
500bus.pwf,19,128,1.0337978268321995,-0.018328637599604826,0.0,0.0,1.62,0.6220996847804203,2
500bus.pwf,19,129,0.9660725176367743,-0.2513105627475356,0.0,0.0,0.0,0.0,1
500bus.pwf,19,130,0.9644006991024762,-0.2546721498435191,1.032,0.2753,0.0,0.0,1
500bus.pwf,19,131,0.9966902805760722,-0.13325356272311642,0.0,0.0,0.0,0.0,1
500bus.pwf,19,132,0.9962757205115919,-0.13412546494520994,0.252,0.06721,0.0,0.0,1
500bus.pwf,19,133,0.995136354299135,-0.11549639012989371,0.0,0.0,0.0,0.0,1
500bus.pwf,19,134,0.9945622495360562,-0.11676559714445943,0.4265,0.1137,0.0,0.0,1
500bus.pwf,19,135,1.0038381932840301,-0.1681426011519543,0.0,0.0,0.0,0.0,1
500bus.pwf,19,136,1.0034311678427235,-0.16907617550299342,0.2676,0.07135,0.0,0.0,1
500bus.pwf,19,137,0.9801233449077342,-0.22245983665289853,0.0,0.0,0.0,0.0,1
500bus.pwf,19,138,0.9788603128669789,-0.22544563279444532,0.787,0.20989999999999998,0.0,0.0,1
500bus.pwf,19,139,0.9935133953488797,-0.14402775685162922,0.0,0.0,0.0,0.0,1
500bus.pwf,19,140,0.9935097413556581,-0.1440355763353147,0.00255,0.00068,0.0,0.0,1
500bus.pwf,19,141,0.9866323876533596,-0.0057097716825735894,0.0,0.0,0.0,0.0,1
500bus.pwf,19,142,0.9839991910759076,-0.011082239602682308,1.6130000000000002,0.4302,0.0,0.0,1
500bus.pwf,19,143,1.010635212974504,0.15346634013255342,0.0,0.0,0.0,0.0,1
500bus.pwf,19,144,1.06070785651007,0.3690355099383948,0.0,0.0,6.025,1.9150087224752783,2
500bus.pwf,19,145,1.0253264499044032,0.20148110477383016,0.0,0.0,2.9819999999999998,0.8595410660558944,2
500bus.pwf,19,146,1.0124248202583381,-0.10545241726700642,0.0,0.0,0.0,0.0,1
500bus.pwf,19,147,0.9992428104371903,-0.11721168298718951,0.0,0.0,0.0,0.0,1
500bus.pwf,19,148,0.9982960909808369,-0.11938583132078487,0.5742,0.1531,0.0,0.0,1
500bus.pwf,19,149,0.9832027061152648,-0.20818402101943026,0.0,0.0,0.0,0.0,1
500bus.pwf,19,150,0.9831771840253712,-0.20823861007935696,0.015029999999999998,0.0040100000000000005,0.0,0.0,1
500bus.pwf,19,151,1.003906750287606,-0.10895615433594197,0.0,0.0,0.0,0.0,1
500bus.pwf,19,152,0.9950791658305144,-0.15257263873195426,0.0,0.0,0.0,0.0,1
500bus.pwf,19,153,0.9938010356940176,-0.155371353557126,0.9315000000000001,0.2484,0.0,0.0,1
500bus.pwf,19,154,0.986748223025184,-0.16074173220603663,0.0,0.0,0.0,0.0,1
500bus.pwf,19,155,0.9858420572249446,-0.16270899390959395,0.6684,0.1782,0.0,0.0,1
500bus.pwf,19,156,0.9623977477337344,-0.22774446052878902,0.0,0.0,0.0,0.0,1
500bus.pwf,19,157,0.9606868852424723,-0.23164659970045504,1.055,0.2812,0.0,0.0,1
500bus.pwf,19,158,0.9918463308071335,-0.20768795134659837,0.0,0.0,0.0,0.0,1
500bus.pwf,19,159,0.9914694420487192,-0.20855070045914315,0.2285,0.06094,0.0,0.0,1
500bus.pwf,19,160,0.9755274063320488,-0.23648524170859972,0.0,0.0,0.0,0.0,1
500bus.pwf,19,161,0.9751259238420914,-0.23741810529377275,0.2595,0.06921000000000001,0.0,0.0,1
500bus.pwf,19,162,1.0119376400267597,-0.10470064538790581,0.0,0.0,0.0,0.0,1
500bus.pwf,19,163,1.0087458383119776,-0.1188060265747528,0.0,0.0,0.0,0.0,1
500bus.pwf,19,164,1.0070693151167809,-0.12249105605149516,0.9815,0.26170000000000004,0.0,0.0,1
500bus.pwf,19,165,1.0252156693211443,-0.03661163901519906,0.0,0.0,0.0,0.0,1
500bus.pwf,19,166,1.0185559949888165,-0.06010114074402497,0.0,0.0,0.0,0.0,1
500bus.pwf,19,167,1.0407045323122373,0.0021946688912162907,0.0,0.0,1.935,0.7429997123122193,2
500bus.pwf,19,168,1.0488126166998277,0.027097666387020422,0.0,0.0,1.935,0.7429997082946137,2
500bus.pwf,19,169,1.0581851513719251,0.05428442578066571,0.0,0.0,3.87,1.4859997095972612,2
500bus.pwf,19,170,0.9944027999236372,-0.11839936507810113,0.0,0.0,0.0,0.0,1
500bus.pwf,19,171,0.9942135457996996,-0.11885484623521941,0.12380000000000001,0.033,0.0,0.0,1
500bus.pwf,19,172,0.9782018362867773,-0.19729347945655587,0.0,0.0,0.0,0.0,1
500bus.pwf,19,173,0.9781535651801908,-0.1973902950058987,0.031349999999999996,0.00836,0.0,0.0,1
500bus.pwf,19,174,0.9780976905588713,-0.19751360230741044,0.07305,0.01948,0.0,0.0,1
500bus.pwf,19,175,1.0039846818353264,-0.024296796531654303,0.0,0.0,0.0,0.0,1
500bus.pwf,19,176,0.9991994780608382,-0.009429998008173261,0.0,0.0,0.0,0.0,1
500bus.pwf,19,177,0.9990649630223206,-0.009737917365221416,0.08781,0.02342,0.0,0.0,1
500bus.pwf,19,178,0.9990954374166267,-0.009632915128010525,0.06813,0.01817,0.0,0.0,1
500bus.pwf,19,179,0.984822668893762,-0.22987499303015957,0.0,0.0,0.0,0.0,1
500bus.pwf,19,180,0.9845964772179971,-0.23032955870932054,0.1414,0.0377,0.0,0.0,1
500bus.pwf,19,181,1.0102532828503477,-0.29986571734447925,0.0,0.0,0.0,0.0,1
500bus.pwf,19,182,1.0089184609249382,-0.30274007428294514,0.8261,0.22030000000000002,0.0,0.0,1
500bus.pwf,19,183,1.0021981466289986,-0.08270373533077904,0.0,0.0,0.0,0.0,1
500bus.pwf,19,184,1.0017920850792585,-0.08356442394486825,0.3018,0.08047,0.0,0.0,1
500bus.pwf,19,185,0.9904072968067433,-0.146136731707398,0.0,0.0,0.0,0.0,1
500bus.pwf,19,186,0.9897746754610196,-0.1474857368719355,0.4535,0.1209,0.0,0.0,1
500bus.pwf,19,187,1.002810734731038,-0.17146929606700195,0.0,0.0,0.0,0.0,1
500bus.pwf,19,188,1.002644478271587,-0.17179528683591766,0.1105,0.02946,0.0,0.0,1
500bus.pwf,19,189,0.986194581663473,-0.27630271282702146,0.0,0.0,0.0,0.0,1
500bus.pwf,19,190,0.9859815616400529,-0.2767116784779952,0.1407,0.03752,0.0,0.0,1
500bus.pwf,19,191,0.9780756865375443,-0.24922920271240634,0.0,0.0,0.0,0.0,1
500bus.pwf,19,192,0.9777917686085337,-0.24984484482058847,0.16440000000000002,0.043840000000000004,0.0,0.0,1
500bus.pwf,19,193,0.9844487736873521,-0.22157434013259514,0.0,0.0,0.0,0.0,1
500bus.pwf,19,194,0.9839496871715345,-0.22264551358659493,0.2869,0.07652,0.0,0.0,1
500bus.pwf,19,195,1.0136624548693252,-0.10538027501474286,0.0,0.0,0.0,0.0,1
500bus.pwf,19,196,1.0018639308949853,-0.14622274682615194,0.0,0.0,0.0,0.0,1
500bus.pwf,19,197,1.0464060268182283,-0.02007722824599602,0.0,0.0,2.9360000000000004,1.172090926988207,2
500bus.pwf,19,198,1.0338803847932792,-0.06250209812249444,0.0,0.0,2.073,0.9641085053786536,2
500bus.pwf,19,199,1.0004989633677943,-0.14891816175759298,0.8639,0.2304,0.0,0.0,1
500bus.pwf,19,200,1.0064659585260014,-0.1327616094242592,0.0,0.0,0.0,0.0,1
500bus.pwf,19,201,1.0063305771584043,-0.13302413648766523,0.08889,0.023700000000000002,0.0,0.0,1
500bus.pwf,19,202,0.9753634423820245,-0.186675150097221,0.0,0.0,0.0,0.0,1
500bus.pwf,19,203,0.9752862442888044,-0.18684503703346644,0.04689,0.0125,0.0,0.0,1
500bus.pwf,19,204,0.9746167617970491,-0.1884728406421699,0.4567,0.12179999999999999,0.0,0.0,1
500bus.pwf,19,205,0.979212485801537,-0.2669189602669401,0.0,0.0,0.0,0.0,1
500bus.pwf,19,206,0.9791706378786538,-0.267009351261229,0.03009,0.008020000000000001,0.0,0.0,1
500bus.pwf,19,207,0.9788339834703031,-0.26774929354724425,0.2257,0.06019,0.0,0.0,1
500bus.pwf,19,208,0.9927187015679491,-0.26125956400569283,0.0,0.0,0.0,0.0,1
500bus.pwf,19,209,0.9914971784841665,-0.2641403608631058,0.8186,0.2183,0.0,0.0,1
500bus.pwf,19,210,0.978600830476149,-0.18206378817903587,0.0,0.0,0.0,0.0,1
500bus.pwf,19,211,0.9780086498571013,-0.1833539122532739,0.3428,0.09141,0.0,0.0,1
500bus.pwf,19,212,0.9756122837428731,-0.23307241083137692,0.0,0.0,0.0,0.0,1
500bus.pwf,19,213,0.9739938471243952,-0.23668119201779145,0.9748,0.26,0.0,0.0,1
500bus.pwf,19,214,0.9767640084312029,-0.23752346314830355,0.0,0.0,0.0,0.0,1
500bus.pwf,19,215,0.9753773833027533,-0.2407680119221183,0.8448,0.2253,0.0,0.0,1
500bus.pwf,19,216,0.9689893762278988,-0.24373366089914444,0.0,0.0,0.0,0.0,1
500bus.pwf,19,217,0.9681716999868715,-0.24547764841111064,0.551,0.1469,0.0,0.0,1
500bus.pwf,19,218,0.9829959433234906,-0.24700725926211764,0.0,0.0,0.0,0.0,1
500bus.pwf,19,219,0.9829906640355508,-0.24701932894611325,0.00333,0.00089,0.0,0.0,1
500bus.pwf,19,220,1.00343795996088,-0.03039112700977028,0.0,0.0,0.0,0.0,1
500bus.pwf,19,221,0.9941428063437705,-0.08789765707820368,0.0,0.0,0.0,0.0,1
500bus.pwf,19,222,1.0034058807022372,-0.02924077764965733,0.0,0.0,0.052000000000000005,-0.002549282203675458,2
500bus.pwf,19,223,1.0032568159224309,-0.024911180212723864,0.0,0.0,0.18,-0.008819282529366413,2
500bus.pwf,19,224,0.9997889061890379,0.03095697246347319,0.0,0.0,5.112,-0.24999929165345178,2
500bus.pwf,19,225,1.001830126560635,0.001438155708405854,0.0,0.0,5.148,-0.25199928576758135,2
500bus.pwf,19,226,0.9946428868147245,-0.1185483451197872,0.0,0.0,0.0,0.0,1
500bus.pwf,19,227,0.9945577919235539,-0.11872212290093943,0.054240000000000003,0.014459999999999999,0.0,0.0,1
500bus.pwf,19,228,0.9951694767493,-0.13088573135939674,0.0,0.0,0.0,0.0,1
500bus.pwf,19,229,0.9943267844380647,-0.13276181538461407,0.5409,0.1442,0.0,0.0,1
500bus.pwf,19,230,1.0009719364697054,-0.20956316459613358,0.0,0.0,0.0,0.0,1
500bus.pwf,19,231,1.000395603732102,-0.20408327601053006,0.0,0.0,0.028999999999999998,-0.0035399991859212335,2
500bus.pwf,19,232,1.0125828230150127,-0.1212437394268971,0.0,0.0,0.0,0.0,1
500bus.pwf,19,233,1.0003146648513928,-0.18132117470480277,0.0,0.0,0.0,0.0,1
500bus.pwf,19,234,0.9994357840574299,-0.1832810588263037,0.5996,0.15990000000000001,0.0,0.0,1
500bus.pwf,19,235,0.9887990513806045,-0.19057819017527358,0.0,0.0,0.0,0.0,1
500bus.pwf,19,236,0.9854213283794373,-0.2134399176762618,0.0,0.0,0.0,0.0,1
500bus.pwf,19,237,0.9853775937765811,-0.21352824988021626,0.027120000000000002,0.0072299999999999994,0.0,0.0,1
500bus.pwf,19,238,0.9844529395556191,-0.17745672496006226,0.0,0.0,0.0,0.0,1
500bus.pwf,19,239,0.9838641185449503,-0.17886333544553562,0.39130000000000004,0.10439999999999999,0.0,0.0,1
500bus.pwf,19,240,0.9834092463479871,-0.2646446574740967,0.0,0.0,0.0,0.0,1
500bus.pwf,19,241,0.9830871822269759,-0.2654285232405677,0.1974,0.05264,0.0,0.0,1
500bus.pwf,19,242,0.9878513760806802,-0.2504522713696723,0.0,0.0,0.0,0.0,1
500bus.pwf,19,243,0.9866454921621681,-0.2531577275151738,0.7447,0.1986,0.0,0.0,1
500bus.pwf,19,244,0.9814459012704679,-0.20244003017490905,0.0,0.0,0.0,0.0,1
500bus.pwf,19,245,0.9812725235047824,-0.20280806431175,0.1184,0.031560000000000005,0.0,0.0,1
500bus.pwf,19,246,1.0076204899887649,-0.09959892170914202,0.0,0.0,0.0,0.0,1
500bus.pwf,19,247,1.0031496363736918,-0.08648579242910216,0.0,0.0,0.0,0.0,1
500bus.pwf,19,248,1.0076204899887649,-0.09959892170914202,0.0,0.0,0.0,0.0,2
500bus.pwf,19,249,1.0076204899887649,-0.09959892170914202,0.0,0.0,0.0,0.0,2
500bus.pwf,19,250,1.0076204899887649,-0.09959892170914202,0.0,0.0,0.0,0.0,2
500bus.pwf,19,251,0.9703045894082181,-0.21737178041707975,0.0,0.0,0.0,0.0,1
500bus.pwf,19,252,0.9682215740659476,-0.2220301863286618,1.187,0.3165,0.0,0.0,1
500bus.pwf,19,253,0.9727188688674603,-0.22468289244677575,0.0,0.0,0.0,0.0,1
500bus.pwf,19,254,0.9727188688674603,-0.22468289244677575,0.0,0.0,0.0,0.0,2
500bus.pwf,19,255,0.9727188688674603,-0.22468289244677575,0.0,0.0,0.0,0.0,2
500bus.pwf,19,256,0.9727188688674603,-0.22468289244677575,0.0,0.0,0.0,0.0,2
500bus.pwf,19,257,0.9727188688674603,-0.22468289244677575,0.0,0.0,0.0,0.0,2
500bus.pwf,19,258,0.9741855762252478,-0.22172362339676244,0.0,0.0,0.011000000000000001,0.005129948642926952,2
500bus.pwf,19,259,0.972584327519681,-0.22497663031666512,0.0816,0.02176,0.0,0.0,1
500bus.pwf,19,260,1.018869066749694,-0.0590714186492131,0.0,0.0,0.0,0.0,1
500bus.pwf,19,261,1.018601515074521,-0.05964069065570258,0.1868,0.04982,0.0,0.0,1
500bus.pwf,19,262,1.0141995918914564,-0.1264164751707417,0.0,0.0,0.0,0.0,1
500bus.pwf,19,263,1.0022282344689224,-0.20264511755903022,0.0,0.0,0.0,0.0,1
500bus.pwf,19,264,1.0141995918914564,-0.1264164751707417,0.0,0.0,0.0,0.0,2
500bus.pwf,19,265,1.0141995918914564,-0.1264164751707417,0.0,0.0,0.0,0.0,2
500bus.pwf,19,266,1.0013136171004344,-0.20464802066607213,0.6178,0.1648,0.0,0.0,1
500bus.pwf,19,267,0.9724675346974412,-0.2966963858211607,0.0,0.0,0.0,0.0,1
500bus.pwf,19,268,0.9707023208074906,-0.3009644478335963,1.171,0.3124,0.0,0.0,1
500bus.pwf,19,269,0.9962950851054438,-0.09346719006365319,0.0,0.0,0.0,0.0,1
500bus.pwf,19,270,0.9961835717209098,-0.0937292139537875,0.06801,0.01814,0.0,0.0,1
500bus.pwf,19,271,0.9885393758200064,-0.19415603760724073,0.0,0.0,0.0,0.0,1
500bus.pwf,19,272,0.9867081931085278,-0.22675045508890637,0.0,0.0,0.0,0.0,1
500bus.pwf,19,273,0.9865509860802766,-0.22712549022378586,0.09492,0.025310000000000003,0.0,0.0,1
500bus.pwf,19,274,1.0042433962088602,-0.06532936353907831,0.0,0.0,0.0,0.0,1
500bus.pwf,19,275,1.0042433962088602,-0.06532936353907831,0.0,0.0,0.0,0.0,2
500bus.pwf,19,276,0.9957943991834788,-0.21178353085484844,0.0,0.0,0.0,0.0,1
500bus.pwf,19,277,0.9957882445345689,-0.21179790412169722,0.004050000000000001,0.00108,0.0,0.0,1
500bus.pwf,19,278,0.9957042546760625,-0.2119993361670471,0.05769,0.01538,0.0,0.0,1
500bus.pwf,19,279,0.9869705802273261,-0.16009761734866768,0.0,0.0,0.0,0.0,1
500bus.pwf,19,280,0.9867109956497002,-0.16060160482521837,0.16940000000000002,0.04518,0.0,0.0,1
500bus.pwf,19,281,0.9767190620435404,-0.26768449863484417,0.0,0.0,0.0,0.0,1
500bus.pwf,19,282,0.9749007598852487,-0.2719631218587158,1.173,0.3128,0.0,0.0,1
500bus.pwf,19,283,0.9826287657524976,-0.22228575432791822,0.0,0.0,0.0,0.0,1
500bus.pwf,19,284,0.9820598752969102,-0.22357699037414497,0.3265,0.08706,0.0,0.0,1
500bus.pwf,19,285,1.0022820759427682,-0.24053535521027175,0.0,0.0,0.0,0.0,1
500bus.pwf,19,286,1.0021534540738648,-0.24078918713139094,0.08268,0.02205,0.0,0.0,1
500bus.pwf,19,287,0.9994475612979558,-0.19023289129754994,0.0,0.0,0.0,0.0,1
500bus.pwf,19,288,0.9985579304276233,-0.1923773091001636,0.5811,0.155,0.0,0.0,1
500bus.pwf,19,289,1.0103107346451836,-0.08378630939682441,0.0,0.0,0.0,0.0,1
500bus.pwf,19,290,1.0102540095126853,-0.08391872255544906,0.0369,0.00984,0.0,0.0,1
500bus.pwf,19,291,0.9882276519244438,-0.2199675339730492,0.0,0.0,0.0,0.0,1
500bus.pwf,19,292,0.9881165847701601,-0.2202067048351371,0.07617,0.02031,0.0,0.0,1
500bus.pwf,19,293,0.9787402654260847,-0.2329225517690001,0.0,0.0,0.0,0.0,1
500bus.pwf,19,294,0.9783413598616391,-0.23375654619469804,0.2561,0.06828000000000001,0.0,0.0,1
500bus.pwf,19,295,0.9939034363435875,-0.17269898452355986,0.0,0.0,0.0,0.0,1
500bus.pwf,19,296,0.9937893459717493,-0.17295843381707565,0.07788,0.02077,0.0,0.0,1
500bus.pwf,19,297,0.9922670688686136,-0.15618108634020234,0.0,0.0,0.0,0.0,1
500bus.pwf,19,298,0.9892145275982328,-0.18240526705599713,0.0,0.0,0.0,0.0,1
500bus.pwf,19,299,0.9889922584118307,-0.18292506678996487,0.1457,0.038849999999999996,0.0,0.0,1
500bus.pwf,19,300,0.9883950081346442,-0.045038602777663604,0.0,0.0,0.0,0.0,1
500bus.pwf,19,301,0.9895734056174331,-0.042663111625719334,0.0,0.0,0.028999999999999998,0.013509973760317259,2
500bus.pwf,19,302,0.9895695357589096,-0.04276653136334943,0.0,0.0,0.028999999999999998,0.013509973762775103,2
500bus.pwf,19,303,0.9868849946992356,-0.04844047578014523,0.8676,0.2314,0.0,0.0,1
500bus.pwf,19,304,0.965934536160164,-0.2493373155303254,0.0,0.0,0.0,0.0,1
500bus.pwf,19,305,0.9682573647127144,-0.2436918896657546,0.0,0.0,0.01,0.0038389337822389404,2
500bus.pwf,19,306,0.9684234811692046,-0.24297663237453399,0.0,0.0,0.024,0.009218933058841909,2
500bus.pwf,19,307,0.9647712811233571,-0.2520468388046913,0.7604000000000001,0.2028,0.0,0.0,1
500bus.pwf,19,308,0.9827243346324773,-0.22503844943669687,0.0,0.0,0.0,0.0,1
500bus.pwf,19,309,0.9825655508269102,-0.2253956285029673,0.09029999999999999,0.02408,0.0,0.0,1
500bus.pwf,19,310,0.986136889001016,-0.28583889359493364,0.0,0.0,0.0,0.0,1
500bus.pwf,19,311,0.9854351036094225,-0.28738225347956237,0.43829999999999997,0.11689999999999999,0.0,0.0,1
500bus.pwf,19,312,0.9760524408863307,-0.2661641116893967,0.0,0.0,0.0,0.0,1
500bus.pwf,19,313,0.9758352841865267,-0.26666109686995304,0.1244,0.033170000000000005,0.0,0.0,1
500bus.pwf,19,314,0.9954255491867475,-0.1905453536475051,0.0,0.0,0.0,0.0,1
500bus.pwf,19,315,0.9954188676440072,-0.19055811467113493,0.00426,0.00114,0.0,0.0,1
500bus.pwf,19,316,1.000881015760468,-0.012792577135304071,0.0,0.0,0.0,0.0,1
500bus.pwf,19,317,1.0008242740951703,-0.01289972529887655,0.03753,0.010009999999999998,0.0,0.0,1
500bus.pwf,19,318,0.9991631518602548,-0.027683061992977008,0.0,0.0,0.0,0.0,1
500bus.pwf,19,319,1.0115118468998476,0.0038168091755611104,0.0,0.0,0.423,0.16239984339941088,2
500bus.pwf,19,320,0.9827823688501578,-0.25408374647386184,0.0,0.0,0.0,0.0,1
500bus.pwf,19,321,0.9803276244170431,-0.2594721166230442,1.504,0.4011,0.0,0.0,1
500bus.pwf,19,322,0.9805457507903765,-0.22374866460324166,0.0,0.0,0.0,0.0,1
500bus.pwf,19,323,0.9798576042519029,-0.22513097057301626,0.45270000000000005,0.1207,0.0,0.0,1
500bus.pwf,19,324,0.9706880364846849,-0.24455477471830472,0.0,0.0,0.0,0.0,1
500bus.pwf,19,325,0.9690503374304505,-0.24848203199680233,1.035,0.2759,0.0,0.0,1
500bus.pwf,19,326,0.9933489867439028,-0.23334833264851107,0.0,0.0,0.0,0.0,1
500bus.pwf,19,327,0.9916053148043087,-0.23708705842407574,1.2109999999999999,0.32280000000000003,0.0,0.0,1
500bus.pwf,19,328,0.9807473162309069,-0.2080991754802546,0.0,0.0,0.0,0.0,1
500bus.pwf,19,329,0.9803851073522575,-0.20888022330392073,0.2602,0.06938,0.0,0.0,1
500bus.pwf,19,330,0.9913729709834377,-0.14594379625555007,0.0,0.0,0.0,0.0,1
500bus.pwf,19,331,0.9904437821510651,-0.14811536244479354,0.5717,0.1525,0.0,0.0,1
500bus.pwf,19,332,1.004982887671854,-0.10252907256762504,0.0,0.0,0.0,0.0,1
500bus.pwf,19,333,0.9967610662538758,-0.13147973694205445,0.0,0.0,0.0,0.0,1
500bus.pwf,19,334,0.9967534468327195,-0.13149496081231885,0.00501,0.00134,0.0,0.0,1
500bus.pwf,19,335,0.9967479159238496,-0.13150815250994696,0.00834,0.00222,0.0,0.0,1
500bus.pwf,19,336,0.9946273856863623,-0.05148676973795137,0.0,0.0,0.0,0.0,1
500bus.pwf,19,337,0.994536026096989,-0.05170207815603531,0.05673,0.01513,0.0,0.0,1
500bus.pwf,19,338,1.0026827434706533,0.1304408131738029,0.0,0.0,0.0,0.0,1
500bus.pwf,19,339,1.0015349856196691,0.127837617498922,0.7511,0.2003,0.0,0.0,1
500bus.pwf,19,340,0.9830729925748267,-0.1725181441477874,0.0,0.0,0.0,0.0,1
500bus.pwf,19,341,0.9826676675852574,-0.17344151139078623,0.2422,0.06459,0.0,0.0,1
500bus.pwf,19,342,0.9836200341026218,-0.23035406259386604,0.0,0.0,0.0,0.0,1
500bus.pwf,19,343,0.983580787089617,-0.23044425955990866,0.02511,0.0067,0.0,0.0,1
500bus.pwf,19,344,0.9835805516098434,-0.23044761767725944,0.024300000000000002,0.0064800000000000005,0.0,0.0,1
500bus.pwf,19,345,0.9837512301998983,-0.2336362364974944,0.0,0.0,0.0,0.0,1
500bus.pwf,19,346,0.9830694769295478,-0.23513078018764372,0.4758,0.12689999999999999,0.0,0.0,1
500bus.pwf,19,347,0.9693896277174229,-0.23121753845705395,0.0,0.0,0.0,0.0,1
500bus.pwf,19,348,0.9681276372638079,-0.23394696803462212,0.8640000000000001,0.2304,0.0,0.0,1
500bus.pwf,19,349,0.9920975120807344,-0.20941158305271837,0.0,0.0,0.0,0.0,1
500bus.pwf,19,350,0.9965853343478219,-0.19870603320304747,0.0,0.0,0.15,0.057599926478402896,2
500bus.pwf,19,351,0.994226138082071,-0.20452406406221696,0.0,0.0,0.062,0.023809926838533037,2
500bus.pwf,19,352,0.9964864115700093,-0.1990783097194767,0.0,0.0,0.14400000000000002,0.05529992649963836,2
500bus.pwf,19,353,1.0129635686365583,-0.1569867490247454,0.0,0.0,0.74,0.284199924231818,2
500bus.pwf,19,354,1.0207584429081478,-0.13183196054565585,0.0,0.0,0.0,0.0,1
500bus.pwf,19,355,1.0204273756950442,-0.1325173085519162,0.1996,0.053239999999999996,0.0,0.0,1
500bus.pwf,19,356,0.9925216428399917,-0.27251064693286803,0.0,0.0,0.0,0.0,1
500bus.pwf,19,357,0.9916955646862321,-0.2743662655428784,0.5573,0.14859999999999998,0.0,0.0,1
500bus.pwf,19,358,0.9894710254236609,-0.2950354703760925,0.0,0.0,0.0,0.0,1
500bus.pwf,19,359,0.9892330314705989,-0.2955312732086508,0.1459,0.038900000000000004,0.0,0.0,1
500bus.pwf,19,360,0.9803695186117054,-0.18493005422841105,0.0,0.0,0.0,0.0,1
500bus.pwf,19,361,0.9803695186117054,-0.18493005422841105,0.0,0.0,0.0,0.0,2
500bus.pwf,19,362,0.9803695186117054,-0.18493005422841105,0.0,0.0,0.0,0.0,2
500bus.pwf,19,363,0.9803695186117054,-0.18493005422841105,0.0,0.0,0.0,0.0,2
500bus.pwf,19,364,0.9799150741104387,-0.1860140779275518,0.3044,0.08117,0.0,0.0,1
500bus.pwf,19,365,0.9867774826722036,-0.2198437875701598,0.0,0.0,0.0,0.0,1
500bus.pwf,19,366,0.9858670204834787,-0.2220336200156707,0.5649000000000001,0.1506,0.0,0.0,1
500bus.pwf,19,367,0.9962891124236657,-0.11616024548438164,0.0,0.0,0.0,0.0,1
500bus.pwf,19,368,0.9961311752657787,-0.11651519959243446,0.11449999999999999,0.030539999999999998,0.0,0.0,1
500bus.pwf,19,369,1.0009816792023516,-0.09781996373851606,0.0,0.0,0.0,0.0,1
500bus.pwf,19,370,1.0004879065471464,-0.09885497534052444,0.35600000000000004,0.09494,0.0,0.0,1
500bus.pwf,19,371,1.0114923398593332,-0.11838622029744905,0.0,0.0,0.0,0.0,1
500bus.pwf,19,372,0.9946542936976297,-0.18331949342040577,0.0,0.0,0.0,0.0,1
500bus.pwf,19,373,0.9942392754003622,-0.18420190908674336,0.2884,0.07690000000000001,0.0,0.0,1
500bus.pwf,19,374,0.984622773667972,-0.22801656806550194,0.0,0.0,0.0,0.0,1
500bus.pwf,19,375,0.984294637853794,-0.22875106282105806,0.2477,0.06604,0.0,0.0,1
500bus.pwf,19,376,0.9856132926730256,-0.1652299261891892,0.0,0.0,0.0,0.0,1
500bus.pwf,19,377,0.9843267269000129,-0.1682308341600079,0.9039,0.24100000000000002,0.0,0.0,1
500bus.pwf,19,378,0.9978083910341506,-0.03379440671717105,0.0,0.0,0.0,0.0,1
500bus.pwf,19,379,0.997599058309616,-0.03427310445046836,0.1301,0.0347,0.0,0.0,1
500bus.pwf,19,380,0.981663968821443,-0.14634106651728196,0.0,0.0,0.0,0.0,1
500bus.pwf,19,381,0.9815105157899316,-0.14670371107633745,0.1013,0.02702,0.0,0.0,1
500bus.pwf,19,382,0.9978885316469287,-0.2700060209052302,0.0,0.0,0.0,0.0,1
500bus.pwf,19,383,0.9974382132628984,-0.2710376198554477,0.2995,0.07986,0.0,0.0,1
500bus.pwf,19,384,0.9756800685526692,-0.2406747436385561,0.0,0.0,0.0,0.0,1
500bus.pwf,19,385,0.975150573166092,-0.24182806511337027,0.36619999999999997,0.09766,0.0,0.0,1
500bus.pwf,19,386,1.00775732728277,-0.06501890648904073,0.0,0.0,0.0,0.0,1
500bus.pwf,19,387,1.0017389537421233,-0.09669565888876541,0.0,0.0,0.0,0.0,1
500bus.pwf,19,388,1.00775732728277,-0.06501890648904073,0.0,0.0,0.0,0.0,2
500bus.pwf,19,389,1.00775732728277,-0.06501890648904073,0.0,0.0,0.0,0.0,2
500bus.pwf,19,390,1.00775732728277,-0.06501890648904073,0.0,0.0,0.0,0.0,2
500bus.pwf,19,391,1.00775732728277,-0.06501890648904073,0.0,0.0,0.0,0.0,2
500bus.pwf,19,392,1.00775732728277,-0.06501890648904073,0.0,0.0,0.0,0.0,2
500bus.pwf,19,393,1.00775732728277,-0.06501890648904073,0.0,0.0,0.0,0.0,2
500bus.pwf,19,394,1.00775732728277,-0.06501890648904073,0.0,0.0,0.0,0.0,2
500bus.pwf,19,395,1.00775732728277,-0.06501890648904073,0.0,0.0,0.0,0.0,2
500bus.pwf,19,396,1.00775732728277,-0.06501890648904073,0.0,0.0,0.0,0.0,2
500bus.pwf,19,397,1.0011820426199698,-0.09795558847274372,0.3995,0.1065,0.0,0.0,1
500bus.pwf,19,398,1.0014843184851767,-0.09718393649972204,0.1677,0.04471,0.0,0.0,1
500bus.pwf,19,399,0.9787095603164407,-0.23180872362470645,0.0,0.0,0.0,0.0,1
500bus.pwf,19,400,0.9782968285579031,-0.23271776946022837,0.2302,0.061399999999999996,0.0,0.0,1
500bus.pwf,19,401,0.9957219708461295,0.07280185520769537,0.0,0.0,0.0,0.0,1
500bus.pwf,19,402,0.9943827896306042,0.06961119659848557,0.8835,0.23559999999999998,0.0,0.0,1
500bus.pwf,19,403,0.9851363800046905,-0.22315944805866644,0.0,0.0,0.0,0.0,1
500bus.pwf,19,404,0.9848271764220943,-0.2238323637242909,0.1977,0.05272,0.0,0.0,1
500bus.pwf,19,405,0.9865046351887535,-0.05657882447103785,0.0,0.0,0.0,0.0,1
500bus.pwf,19,406,0.986423543760848,-0.05676207728804752,0.0525,0.013999999999999999,0.0,0.0,1
500bus.pwf,19,407,0.9897544368828378,-0.16294377581219888,0.0,0.0,0.0,0.0,1
500bus.pwf,19,408,0.9834842442688955,-0.2029984609262443,0.0,0.0,0.0,0.0,1
500bus.pwf,19,409,0.9897544368828378,-0.16294377581219888,0.0,0.0,0.0,0.0,2
500bus.pwf,19,410,0.9940372771136727,-0.12908352810170975,0.0,0.0,0.7943000000000001,0.10976357131688559,2
500bus.pwf,19,411,0.9931283827591567,-0.14398452087182273,0.0,0.0,0.7943000000000001,0.1447528015826948,2
500bus.pwf,19,412,0.9930725068847523,-0.14120482932430314,0.0,0.0,0.7943000000000001,0.12508191696734422,2
500bus.pwf,19,413,0.9922688318264903,-0.13766106681160042,0.0,0.0,0.616,0.061039843929425616,2
500bus.pwf,19,414,0.9897544368828378,-0.16294377581219888,0.0,0.0,0.0,0.0,2
500bus.pwf,19,415,0.9932113100377421,-0.2079105880074702,0.0,0.0,0.0,0.0,1
500bus.pwf,19,416,0.9931165422003162,-0.2081375501015324,0.060629999999999996,0.01617,0.0,0.0,1
500bus.pwf,19,417,0.9794732716729794,-0.199605893609086,0.0,0.0,0.0,0.0,1
500bus.pwf,19,418,0.9784407190714384,-0.20182591918359874,0.6362,0.1696,0.0,0.0,1
500bus.pwf,19,419,0.9799700336147598,-0.2778336527358523,0.0,0.0,0.0,0.0,1
500bus.pwf,19,420,0.9798856503821975,-0.2780295931487232,0.05226,0.01394,0.0,0.0,1
500bus.pwf,19,421,1.0083245081400827,-0.15555220351774202,0.0,0.0,0.0,0.0,1
500bus.pwf,19,422,1.00761280993156,-0.15697447644954315,0.4918,0.1311,0.0,0.0,1
500bus.pwf,19,423,0.9863349407937095,0.05848375550993296,0.0,0.0,0.0,0.0,1
500bus.pwf,19,424,0.9835810084639187,0.05252178000076069,1.571,0.4189,0.0,0.0,1
500bus.pwf,19,425,0.9914030273297167,-0.1614032357216451,0.0,0.0,0.0,0.0,1
500bus.pwf,19,426,0.9860857096788767,-0.20387039338772664,0.0,0.0,0.0,0.0,1
500bus.pwf,19,427,0.9858687374311801,-0.20429292788742848,0.14429999999999998,0.03849,0.0,0.0,1
500bus.pwf,19,428,1.0085147266847323,-0.09969781947604628,0.0,0.0,0.0,0.0,1
500bus.pwf,19,429,0.997957085783074,-0.13249878594400194,0.0,0.0,0.0,0.0,1
500bus.pwf,19,430,1.0086580022568254,-0.09907551983120157,0.0,0.0,0.01,0.0020914674352859254,2
500bus.pwf,19,431,1.0088615889216062,-0.09851865221791012,0.0,0.0,0.033,0.009282162865736793,2
500bus.pwf,19,432,1.0085995066062332,-0.09932384705835234,0.0,0.0,0.012,0.002608503352845333,2
500bus.pwf,19,433,1.0105002082369157,-0.09373340062677081,0.0,0.0,0.067,0.021660909548207652,2
500bus.pwf,19,434,1.0088168139555935,-0.09874476223488667,0.0,0.0,0.043,0.012911150727065595,2
500bus.pwf,19,435,1.0085147266847323,-0.09969781947604628,0.0,0.0,0.0,0.0,2
500bus.pwf,19,436,1.0085147266847323,-0.09969781947604628,0.0,0.0,0.0,0.0,2
500bus.pwf,19,437,1.0216881211629139,-0.06453693230277377,0.0,0.0,1.97,0.7494665307183849,2
500bus.pwf,19,438,1.0236442430340025,-0.05571215341286899,0.0,0.0,1.97,0.6654877409047184,2
500bus.pwf,19,439,1.0190427608692492,-0.0719489302971296,0.0,0.0,1.97,0.7498460114943202,2
500bus.pwf,19,440,0.9946140604807518,-0.13528485920371514,0.0,0.0,0.0,0.0,1
500bus.pwf,19,441,0.9792861554580006,-0.2094842737631685,0.0,0.0,0.0,0.0,1
500bus.pwf,19,442,0.9946140604807518,-0.13528485920371514,0.0,0.0,0.0,0.0,2
500bus.pwf,19,443,0.9946140604807518,-0.13528485920371514,0.0,0.0,0.0,0.0,2
500bus.pwf,19,444,0.9946140604807518,-0.13528485920371514,0.0,0.0,0.0,0.0,2
500bus.pwf,19,445,0.98796514849546,-0.1714516883801209,0.0,0.0,0.0,0.0,1
500bus.pwf,19,446,0.9864910124337758,-0.17454343498602418,0.8868,0.2365,0.0,0.0,1
500bus.pwf,19,447,0.9896116350268711,-0.14421599606187002,0.0,0.0,0.0,0.0,1
500bus.pwf,19,448,0.9886759894924542,-0.146385616646739,0.5756,0.1535,0.0,0.0,1
500bus.pwf,19,449,0.9883679575440205,-0.15456354468695235,0.0,0.0,0.0,0.0,1
500bus.pwf,19,450,0.9883520051825445,-0.15460017686618027,0.01122,0.00299,0.0,0.0,1
500bus.pwf,19,451,0.9883371866657733,-0.15463265376640373,0.022109999999999998,0.0059,0.0,0.0,1
500bus.pwf,19,452,0.9998745689139126,0.061310788724328616,0.1116,0.029769999999999998,0.0,0.0,1
500bus.pwf,19,453,1.0080596245459446,-0.123190305930942,0.0,0.0,0.0,0.0,1
500bus.pwf,19,454,0.9932811900277038,-0.20086061650662437,0.0,0.0,0.0,0.0,1
500bus.pwf,19,455,1.0055175918846935,-0.11248990996422163,0.0,0.0,0.6685,-0.16534295916109018,2
500bus.pwf,19,456,1.0031317641913402,-0.1010911700702266,0.0,0.0,1.337,-0.2935872068404919,2
500bus.pwf,19,457,1.0135384737292992,-0.1321346706073411,0.0,0.0,0.0,0.0,1
500bus.pwf,19,458,1.0126989271652165,-0.05498434540451163,0.0,0.0,1.0959999999999999,0.0,2
500bus.pwf,19,459,1.0005891865956063,0.12201905738983697,0.7447,0.1986,0.0,0.0,1
500bus.pwf,19,460,0.9834305978389429,-0.17154039725673725,0.2634,0.07025,0.0,0.0,1
500bus.pwf,19,461,0.9835046686350155,-0.1706015137336493,0.9172,0.2446,0.0,0.0,1
500bus.pwf,19,462,0.99904521115538,-0.13699188000631993,0.0,0.0,0.0,0.0,1
500bus.pwf,19,463,0.99904521115538,-0.13699188000631993,0.0,0.0,0.0,0.0,2
500bus.pwf,19,464,1.004050813758348,-0.10447333490372081,0.0,0.0,0.0,0.0,1
500bus.pwf,19,465,1.0007950292123207,-0.12328190848482654,0.1252,0.03339,0.0,0.0,1
500bus.pwf,19,466,0.9957435041754934,-0.13771231535264455,0.4334,0.11560000000000001,0.0,0.0,1
500bus.pwf,19,467,0.9955623884483268,-0.12138204509914328,0.00807,0.00215,0.0,0.0,1
500bus.pwf,19,468,0.9906990167837001,-0.14824911802347399,0.03762,0.010029999999999999,0.0,0.0,1
500bus.pwf,19,469,0.9711476608745634,-0.21182559699363443,1.285,0.3427,0.0,0.0,1
500bus.pwf,19,470,0.9968452789893211,-0.11419055649808804,0.42560000000000003,0.11349999999999999,0.0,0.0,1
500bus.pwf,19,471,1.0043018229137124,-0.09873933622341592,0.0,0.0,0.0,0.0,1
500bus.pwf,19,472,0.9975918807345752,-0.1260293376948197,0.4971,0.1326,0.0,0.0,1
500bus.pwf,19,473,0.9982701558729352,-0.10667842427721497,0.00999,0.00266,0.0,0.0,1
500bus.pwf,19,474,0.9848038480828055,-0.17484315267895303,0.0,0.0,0.0,0.0,1
500bus.pwf,19,475,0.9979331734349653,-0.106016665386011,0.0016200000000000001,0.00043,0.0,0.0,1
500bus.pwf,19,476,0.9978557064444696,-0.20536454790428585,0.5986,0.15960000000000002,0.0,0.0,1
500bus.pwf,19,477,0.996114564512563,-0.15803743709381596,0.0,0.0,0.0,0.0,1
500bus.pwf,19,478,0.9928098848700654,-0.07657205946511422,0.0,0.0,0.0,0.0,1
500bus.pwf,19,479,1.0353155225632988,-0.10284115857774875,0.0,0.0,0.0,0.0,1
500bus.pwf,19,480,1.0489968312133409,-0.07080922287685787,0.0,0.0,0.56,0.21499946182345253,2
500bus.pwf,19,481,1.0446007280890783,-0.0801036606038051,0.0,0.0,0.45,0.1727994654289523,2
500bus.pwf,19,482,1.041040240329964,-0.08975265198750042,0.0,0.0,0.45,0.17279946898088375,2
500bus.pwf,19,483,1.044732318430799,-0.08079417573147073,0.0,0.0,0.24,0.0921594655360937,2
500bus.pwf,19,484,1.0412718066960236,-0.08872972763321857,0.0,0.0,0.28,0.10749946865383174,2
500bus.pwf,19,485,0.9897557350315852,-0.21616770639807964,0.2788,0.07434,0.0,0.0,1
500bus.pwf,19,486,0.996215964700536,-0.2003859518412078,0.6853,0.18280000000000002,0.0,0.0,1
500bus.pwf,19,487,1.0056604145300925,-0.2743427605929996,0.1167,0.031110000000000002,0.0,0.0,1
500bus.pwf,19,488,0.9663008541783767,-0.21574793292678585,0.9790000000000001,0.2611,0.0,0.0,1
500bus.pwf,19,489,0.9840783830050277,-0.20811563912172476,0.0,0.0,0.0,0.0,1
500bus.pwf,19,490,0.9738804549260183,-0.23392938463999466,0.2981,0.0795,0.0,0.0,1
500bus.pwf,19,491,0.9957053669661684,-0.23526997112907813,1.195,0.3187,0.0,0.0,1
500bus.pwf,19,492,0.9845682041282349,-0.06918348933566834,0.5954,0.1588,0.0,0.0,1
500bus.pwf,19,493,0.987400065742879,-0.1176292881459243,0.04047,0.01079,0.0,0.0,1
500bus.pwf,19,494,0.987400065742879,-0.1176292881459243,0.0,0.0,0.0,0.0,2
500bus.pwf,19,495,0.9860508237309428,-0.16104543581118874,0.7517,0.2005,0.0,0.0,1
500bus.pwf,19,496,1.003604836602953,0.12678368168351298,0.0,0.0,0.0,0.0,1
500bus.pwf,19,497,1.0183968947136604,0.1644430232612772,0.0,0.0,0.6,0.2303997239370233,2
500bus.pwf,19,498,1.0121328236129044,0.14734280066273298,0.0,0.0,0.18,0.06911972706991207,2
500bus.pwf,19,499,0.9784552810056752,-0.24015052248054639,1.2229999999999999,0.3262,0.0,0.0,1
500bus.pwf,19,500,0.9852042907830094,-0.20794474541571398,0.0,0.0,0.0,0.0,1
